Circuit: * C:\Users\bens1\Documents\Uni\Robotics\MSL\MSL_Imperial_2023\Electronics\Power\Power Simulations\ovp_zener_simulation.asc

Error on line 6 : v1 vin 0 v
	 Unknown parameter "v"
V1: Missing value, assumed 0V @ DC

Date: Mon Jul 10 15:27:22 2023
Total elapsed time: 0.056 seconds.

tnom = 27
temp = 27
method = trap
totiter = 818
traniter = 0
tranpoints = 0
accept = 0
rejected = 0
matrix size = 6
fillins = 0
solver = Normal
Matrix Compiler1: 200 bytes object code size  0.1/0.1/[0.1]
Matrix Compiler2: off  [0.1]/0.1/0.1

